600

Cr	2.27644	2.27644	0
Cr	4.55356	4.55356	0
Cr	2.27644	0	6.83598
Cr	4.55356	4.55356	6.83598
Cr	0	0	13.674
Cr	2.27644	2.27644	13.674
Cr	9.10644	2.27644	0
Cr	11.3836	4.55356	0
Cr	9.10644	0	6.83598
Cr	11.3836	4.55356	6.83598
Cr	6.83	0	13.674
Cr	9.10644	2.27644	13.674
Cr	15.9364	2.27644	0
Cr	18.2136	4.55356	0
Cr	15.9364	0	6.83598
Cr	18.2136	4.55356	6.83598
Cr	13.66	0	13.674
Cr	15.9364	2.27644	13.674
Cr	22.7664	2.27644	0
Cr	25.0436	4.55356	0
Cr	22.7664	0	6.83598
Cr	25.0436	4.55356	6.83598
Cr	20.49	0	13.674
Cr	22.7664	2.27644	13.674
Cr	29.5964	2.27644	0
Cr	31.8736	4.55356	0
Cr	29.5964	0	6.83598
Cr	31.8736	4.55356	6.83598
Cr	27.32	0	13.674
Cr	29.5964	2.27644	13.674
Cr	36.4264	2.27644	0
Cr	38.7036	4.55356	0
Cr	36.4264	0	6.83598
Cr	38.7036	4.55356	6.83598
Cr	34.15	0	13.674
Cr	36.4264	2.27644	13.674
Cr	43.2564	2.27644	0
Cr	45.5336	4.55356	0
Cr	43.2564	0	6.83598
Cr	45.5336	4.55356	6.83598
Cr	40.98	0	13.674
Cr	43.2564	2.27644	13.674
Cr	50.0864	2.27644	0
Cr	52.3636	4.55356	0
Cr	50.0864	0	6.83598
Cr	52.3636	4.55356	6.83598
Cr	47.81	0	13.674
Cr	50.0864	2.27644	13.674
Cr	56.9164	2.27644	0
Cr	59.1936	4.55356	0
Cr	56.9164	0	6.83598
Cr	59.1936	4.55356	6.83598
Cr	54.64	0	13.674
Cr	56.9164	2.27644	13.674
Cr	63.7464	2.27644	0
Cr	66.0236	4.55356	0
Cr	63.7464	0	6.83598
Cr	66.0236	4.55356	6.83598
Cr	61.47	0	13.674
Cr	63.7464	2.27644	13.674
Cr	2.27644	9.10644	0
Cr	4.55356	11.3836	0
Cr	2.27644	6.83	6.83598
Cr	4.55356	11.3836	6.83598
Cr	0	6.83	13.674
Cr	2.27644	9.10644	13.674
Cr	9.10644	9.10644	0
Cr	11.3836	11.3836	0
Cr	9.10644	6.83	6.83598
Cr	11.3836	11.3836	6.83598
Cr	6.83	6.83	13.674
Cr	9.10644	9.10644	13.674
Cr	15.9364	9.10644	0
Cr	18.2136	11.3836	0
Cr	15.9364	6.83	6.83598
Cr	18.2136	11.3836	6.83598
Cr	13.66	6.83	13.674
Cr	15.9364	9.10644	13.674
Cr	22.7664	9.10644	0
Cr	25.0436	11.3836	0
Cr	22.7664	6.83	6.83598
Cr	25.0436	11.3836	6.83598
Cr	20.49	6.83	13.674
Cr	22.7664	9.10644	13.674
Cr	29.5964	9.10644	0
Cr	31.8736	11.3836	0
Cr	29.5964	6.83	6.83598
Cr	31.8736	11.3836	6.83598
Cr	27.32	6.83	13.674
Cr	29.5964	9.10644	13.674
Cr	36.4264	9.10644	0
Cr	38.7036	11.3836	0
Cr	36.4264	6.83	6.83598
Cr	38.7036	11.3836	6.83598
Cr	34.15	6.83	13.674
Cr	36.4264	9.10644	13.674
Cr	43.2564	9.10644	0
Cr	45.5336	11.3836	0
Cr	43.2564	6.83	6.83598
Cr	45.5336	11.3836	6.83598
Cr	40.98	6.83	13.674
Cr	43.2564	9.10644	13.674
Cr	50.0864	9.10644	0
Cr	52.3636	11.3836	0
Cr	50.0864	6.83	6.83598
Cr	52.3636	11.3836	6.83598
Cr	47.81	6.83	13.674
Cr	50.0864	9.10644	13.674
Cr	56.9164	9.10644	0
Cr	59.1936	11.3836	0
Cr	56.9164	6.83	6.83598
Cr	59.1936	11.3836	6.83598
Cr	54.64	6.83	13.674
Cr	56.9164	9.10644	13.674
Cr	63.7464	9.10644	0
Cr	66.0236	11.3836	0
Cr	63.7464	6.83	6.83598
Cr	66.0236	11.3836	6.83598
Cr	61.47	6.83	13.674
Cr	63.7464	9.10644	13.674
Cr	2.27644	15.9364	0
Cr	4.55356	18.2136	0
Cr	2.27644	13.66	6.83598
Cr	4.55356	18.2136	6.83598
Cr	0	13.66	13.674
Cr	2.27644	15.9364	13.674
Cr	9.10644	15.9364	0
Cr	11.3836	18.2136	0
Cr	9.10644	13.66	6.83598
Cr	11.3836	18.2136	6.83598
Cr	6.83	13.66	13.674
Cr	9.10644	15.9364	13.674
Cr	15.9364	15.9364	0
Cr	18.2136	18.2136	0
Cr	15.9364	13.66	6.83598
Cr	18.2136	18.2136	6.83598
Cr	13.66	13.66	13.674
Cr	15.9364	15.9364	13.674
Cr	22.7664	15.9364	0
Cr	25.0436	18.2136	0
Cr	22.7664	13.66	6.83598
Cr	25.0436	18.2136	6.83598
Cr	20.49	13.66	13.674
Cr	22.7664	15.9364	13.674
Cr	29.5964	15.9364	0
Cr	31.8736	18.2136	0
Cr	29.5964	13.66	6.83598
Cr	31.8736	18.2136	6.83598
Cr	27.32	13.66	13.674
Cr	29.5964	15.9364	13.674
Cr	36.4264	15.9364	0
Cr	38.7036	18.2136	0
Cr	36.4264	13.66	6.83598
Cr	38.7036	18.2136	6.83598
Cr	34.15	13.66	13.674
Cr	36.4264	15.9364	13.674
Cr	43.2564	15.9364	0
Cr	45.5336	18.2136	0
Cr	43.2564	13.66	6.83598
Cr	45.5336	18.2136	6.83598
Cr	40.98	13.66	13.674
Cr	43.2564	15.9364	13.674
Cr	50.0864	15.9364	0
Cr	52.3636	18.2136	0
Cr	50.0864	13.66	6.83598
Cr	52.3636	18.2136	6.83598
Cr	47.81	13.66	13.674
Cr	50.0864	15.9364	13.674
Cr	56.9164	15.9364	0
Cr	59.1936	18.2136	0
Cr	56.9164	13.66	6.83598
Cr	59.1936	18.2136	6.83598
Cr	54.64	13.66	13.674
Cr	56.9164	15.9364	13.674
Cr	63.7464	15.9364	0
Cr	66.0236	18.2136	0
Cr	63.7464	13.66	6.83598
Cr	66.0236	18.2136	6.83598
Cr	61.47	13.66	13.674
Cr	63.7464	15.9364	13.674
Cr	2.27644	22.7664	0
Cr	4.55356	25.0436	0
Cr	2.27644	20.49	6.83598
Cr	4.55356	25.0436	6.83598
Cr	0	20.49	13.674
Cr	2.27644	22.7664	13.674
Cr	9.10644	22.7664	0
Cr	11.3836	25.0436	0
Cr	9.10644	20.49	6.83598
Cr	11.3836	25.0436	6.83598
Cr	6.83	20.49	13.674
Cr	9.10644	22.7664	13.674
Cr	15.9364	22.7664	0
Cr	18.2136	25.0436	0
Cr	15.9364	20.49	6.83598
Cr	18.2136	25.0436	6.83598
Cr	13.66	20.49	13.674
Cr	15.9364	22.7664	13.674
Cr	22.7664	22.7664	0
Cr	25.0436	25.0436	0
Cr	22.7664	20.49	6.83598
Cr	25.0436	25.0436	6.83598
Cr	20.49	20.49	13.674
Cr	22.7664	22.7664	13.674
Cr	29.5964	22.7664	0
Cr	31.8736	25.0436	0
Cr	29.5964	20.49	6.83598
Cr	31.8736	25.0436	6.83598
Cr	27.32	20.49	13.674
Cr	29.5964	22.7664	13.674
Cr	36.4264	22.7664	0
Cr	38.7036	25.0436	0
Cr	36.4264	20.49	6.83598
Cr	38.7036	25.0436	6.83598
Cr	34.15	20.49	13.674
Cr	36.4264	22.7664	13.674
Cr	43.2564	22.7664	0
Cr	45.5336	25.0436	0
Cr	43.2564	20.49	6.83598
Cr	45.5336	25.0436	6.83598
Cr	40.98	20.49	13.674
Cr	43.2564	22.7664	13.674
Cr	50.0864	22.7664	0
Cr	52.3636	25.0436	0
Cr	50.0864	20.49	6.83598
Cr	52.3636	25.0436	6.83598
Cr	47.81	20.49	13.674
Cr	50.0864	22.7664	13.674
Cr	56.9164	22.7664	0
Cr	59.1936	25.0436	0
Cr	56.9164	20.49	6.83598
Cr	59.1936	25.0436	6.83598
Cr	54.64	20.49	13.674
Cr	56.9164	22.7664	13.674
Cr	63.7464	22.7664	0
Cr	66.0236	25.0436	0
Cr	63.7464	20.49	6.83598
Cr	66.0236	25.0436	6.83598
Cr	61.47	20.49	13.674
Cr	63.7464	22.7664	13.674
Cr	2.27644	29.5964	0
Cr	4.55356	31.8736	0
Cr	2.27644	27.32	6.83598
Cr	4.55356	31.8736	6.83598
Cr	0	27.32	13.674
Cr	2.27644	29.5964	13.674
Cr	9.10644	29.5964	0
Cr	11.3836	31.8736	0
Cr	9.10644	27.32	6.83598
Cr	11.3836	31.8736	6.83598
Cr	6.83	27.32	13.674
Cr	9.10644	29.5964	13.674
Cr	15.9364	29.5964	0
Cr	18.2136	31.8736	0
Cr	15.9364	27.32	6.83598
Cr	18.2136	31.8736	6.83598
Cr	13.66	27.32	13.674
Cr	15.9364	29.5964	13.674
Cr	22.7664	29.5964	0
Cr	25.0436	31.8736	0
Cr	22.7664	27.32	6.83598
Cr	25.0436	31.8736	6.83598
Cr	20.49	27.32	13.674
Cr	22.7664	29.5964	13.674
Cr	29.5964	29.5964	0
Cr	31.8736	31.8736	0
Cr	29.5964	27.32	6.83598
Cr	31.8736	31.8736	6.83598
Cr	27.32	27.32	13.674
Cr	29.5964	29.5964	13.674
Cr	36.4264	29.5964	0
Cr	38.7036	31.8736	0
Cr	36.4264	27.32	6.83598
Cr	38.7036	31.8736	6.83598
Cr	34.15	27.32	13.674
Cr	36.4264	29.5964	13.674
Cr	43.2564	29.5964	0
Cr	45.5336	31.8736	0
Cr	43.2564	27.32	6.83598
Cr	45.5336	31.8736	6.83598
Cr	40.98	27.32	13.674
Cr	43.2564	29.5964	13.674
Cr	50.0864	29.5964	0
Cr	52.3636	31.8736	0
Cr	50.0864	27.32	6.83598
Cr	52.3636	31.8736	6.83598
Cr	47.81	27.32	13.674
Cr	50.0864	29.5964	13.674
Cr	56.9164	29.5964	0
Cr	59.1936	31.8736	0
Cr	56.9164	27.32	6.83598
Cr	59.1936	31.8736	6.83598
Cr	54.64	27.32	13.674
Cr	56.9164	29.5964	13.674
Cr	63.7464	29.5964	0
Cr	66.0236	31.8736	0
Cr	63.7464	27.32	6.83598
Cr	66.0236	31.8736	6.83598
Cr	61.47	27.32	13.674
Cr	63.7464	29.5964	13.674
Cr	2.27644	36.4264	0
Cr	4.55356	38.7036	0
Cr	2.27644	34.15	6.83598
Cr	4.55356	38.7036	6.83598
Cr	0	34.15	13.674
Cr	2.27644	36.4264	13.674
Cr	9.10644	36.4264	0
Cr	11.3836	38.7036	0
Cr	9.10644	34.15	6.83598
Cr	11.3836	38.7036	6.83598
Cr	6.83	34.15	13.674
Cr	9.10644	36.4264	13.674
Cr	15.9364	36.4264	0
Cr	18.2136	38.7036	0
Cr	15.9364	34.15	6.83598
Cr	18.2136	38.7036	6.83598
Cr	13.66	34.15	13.674
Cr	15.9364	36.4264	13.674
Cr	22.7664	36.4264	0
Cr	25.0436	38.7036	0
Cr	22.7664	34.15	6.83598
Cr	25.0436	38.7036	6.83598
Cr	20.49	34.15	13.674
Cr	22.7664	36.4264	13.674
Cr	29.5964	36.4264	0
Cr	31.8736	38.7036	0
Cr	29.5964	34.15	6.83598
Cr	31.8736	38.7036	6.83598
Cr	27.32	34.15	13.674
Cr	29.5964	36.4264	13.674
Cr	36.4264	36.4264	0
Cr	38.7036	38.7036	0
Cr	36.4264	34.15	6.83598
Cr	38.7036	38.7036	6.83598
Cr	34.15	34.15	13.674
Cr	36.4264	36.4264	13.674
Cr	43.2564	36.4264	0
Cr	45.5336	38.7036	0
Cr	43.2564	34.15	6.83598
Cr	45.5336	38.7036	6.83598
Cr	40.98	34.15	13.674
Cr	43.2564	36.4264	13.674
Cr	50.0864	36.4264	0
Cr	52.3636	38.7036	0
Cr	50.0864	34.15	6.83598
Cr	52.3636	38.7036	6.83598
Cr	47.81	34.15	13.674
Cr	50.0864	36.4264	13.674
Cr	56.9164	36.4264	0
Cr	59.1936	38.7036	0
Cr	56.9164	34.15	6.83598
Cr	59.1936	38.7036	6.83598
Cr	54.64	34.15	13.674
Cr	56.9164	36.4264	13.674
Cr	63.7464	36.4264	0
Cr	66.0236	38.7036	0
Cr	63.7464	34.15	6.83598
Cr	66.0236	38.7036	6.83598
Cr	61.47	34.15	13.674
Cr	63.7464	36.4264	13.674
Cr	2.27644	43.2564	0
Cr	4.55356	45.5336	0
Cr	2.27644	40.98	6.83598
Cr	4.55356	45.5336	6.83598
Cr	0	40.98	13.674
Cr	2.27644	43.2564	13.674
Cr	9.10644	43.2564	0
Cr	11.3836	45.5336	0
Cr	9.10644	40.98	6.83598
Cr	11.3836	45.5336	6.83598
Cr	6.83	40.98	13.674
Cr	9.10644	43.2564	13.674
Cr	15.9364	43.2564	0
Cr	18.2136	45.5336	0
Cr	15.9364	40.98	6.83598
Cr	18.2136	45.5336	6.83598
Cr	13.66	40.98	13.674
Cr	15.9364	43.2564	13.674
Cr	22.7664	43.2564	0
Cr	25.0436	45.5336	0
Cr	22.7664	40.98	6.83598
Cr	25.0436	45.5336	6.83598
Cr	20.49	40.98	13.674
Cr	22.7664	43.2564	13.674
Cr	29.5964	43.2564	0
Cr	31.8736	45.5336	0
Cr	29.5964	40.98	6.83598
Cr	31.8736	45.5336	6.83598
Cr	27.32	40.98	13.674
Cr	29.5964	43.2564	13.674
Cr	36.4264	43.2564	0
Cr	38.7036	45.5336	0
Cr	36.4264	40.98	6.83598
Cr	38.7036	45.5336	6.83598
Cr	34.15	40.98	13.674
Cr	36.4264	43.2564	13.674
Cr	43.2564	43.2564	0
Cr	45.5336	45.5336	0
Cr	43.2564	40.98	6.83598
Cr	45.5336	45.5336	6.83598
Cr	40.98	40.98	13.674
Cr	43.2564	43.2564	13.674
Cr	50.0864	43.2564	0
Cr	52.3636	45.5336	0
Cr	50.0864	40.98	6.83598
Cr	52.3636	45.5336	6.83598
Cr	47.81	40.98	13.674
Cr	50.0864	43.2564	13.674
Cr	56.9164	43.2564	0
Cr	59.1936	45.5336	0
Cr	56.9164	40.98	6.83598
Cr	59.1936	45.5336	6.83598
Cr	54.64	40.98	13.674
Cr	56.9164	43.2564	13.674
Cr	63.7464	43.2564	0
Cr	66.0236	45.5336	0
Cr	63.7464	40.98	6.83598
Cr	66.0236	45.5336	6.83598
Cr	61.47	40.98	13.674
Cr	63.7464	43.2564	13.674
Cr	2.27644	50.0864	0
Cr	4.55356	52.3636	0
Cr	2.27644	47.81	6.83598
Cr	4.55356	52.3636	6.83598
Cr	0	47.81	13.674
Cr	2.27644	50.0864	13.674
Cr	9.10644	50.0864	0
Cr	11.3836	52.3636	0
Cr	9.10644	47.81	6.83598
Cr	11.3836	52.3636	6.83598
Cr	6.83	47.81	13.674
Cr	9.10644	50.0864	13.674
Cr	15.9364	50.0864	0
Cr	18.2136	52.3636	0
Cr	15.9364	47.81	6.83598
Cr	18.2136	52.3636	6.83598
Cr	13.66	47.81	13.674
Cr	15.9364	50.0864	13.674
Cr	22.7664	50.0864	0
Cr	25.0436	52.3636	0
Cr	22.7664	47.81	6.83598
Cr	25.0436	52.3636	6.83598
Cr	20.49	47.81	13.674
Cr	22.7664	50.0864	13.674
Cr	29.5964	50.0864	0
Cr	31.8736	52.3636	0
Cr	29.5964	47.81	6.83598
Cr	31.8736	52.3636	6.83598
Cr	27.32	47.81	13.674
Cr	29.5964	50.0864	13.674
Cr	36.4264	50.0864	0
Cr	38.7036	52.3636	0
Cr	36.4264	47.81	6.83598
Cr	38.7036	52.3636	6.83598
Cr	34.15	47.81	13.674
Cr	36.4264	50.0864	13.674
Cr	43.2564	50.0864	0
Cr	45.5336	52.3636	0
Cr	43.2564	47.81	6.83598
Cr	45.5336	52.3636	6.83598
Cr	40.98	47.81	13.674
Cr	43.2564	50.0864	13.674
Cr	50.0864	50.0864	0
Cr	52.3636	52.3636	0
Cr	50.0864	47.81	6.83598
Cr	52.3636	52.3636	6.83598
Cr	47.81	47.81	13.674
Cr	50.0864	50.0864	13.674
Cr	56.9164	50.0864	0
Cr	59.1936	52.3636	0
Cr	56.9164	47.81	6.83598
Cr	59.1936	52.3636	6.83598
Cr	54.64	47.81	13.674
Cr	56.9164	50.0864	13.674
Cr	63.7464	50.0864	0
Cr	66.0236	52.3636	0
Cr	63.7464	47.81	6.83598
Cr	66.0236	52.3636	6.83598
Cr	61.47	47.81	13.674
Cr	63.7464	50.0864	13.674
Cr	2.27644	56.9164	0
Cr	4.55356	59.1936	0
Cr	2.27644	54.64	6.83598
Cr	4.55356	59.1936	6.83598
Cr	0	54.64	13.674
Cr	2.27644	56.9164	13.674
Cr	9.10644	56.9164	0
Cr	11.3836	59.1936	0
Cr	9.10644	54.64	6.83598
Cr	11.3836	59.1936	6.83598
Cr	6.83	54.64	13.674
Cr	9.10644	56.9164	13.674
Cr	15.9364	56.9164	0
Cr	18.2136	59.1936	0
Cr	15.9364	54.64	6.83598
Cr	18.2136	59.1936	6.83598
Cr	13.66	54.64	13.674
Cr	15.9364	56.9164	13.674
Cr	22.7664	56.9164	0
Cr	25.0436	59.1936	0
Cr	22.7664	54.64	6.83598
Cr	25.0436	59.1936	6.83598
Cr	20.49	54.64	13.674
Cr	22.7664	56.9164	13.674
Cr	29.5964	56.9164	0
Cr	31.8736	59.1936	0
Cr	29.5964	54.64	6.83598
Cr	31.8736	59.1936	6.83598
Cr	27.32	54.64	13.674
Cr	29.5964	56.9164	13.674
Cr	36.4264	56.9164	0
Cr	38.7036	59.1936	0
Cr	36.4264	54.64	6.83598
Cr	38.7036	59.1936	6.83598
Cr	34.15	54.64	13.674
Cr	36.4264	56.9164	13.674
Cr	43.2564	56.9164	0
Cr	45.5336	59.1936	0
Cr	43.2564	54.64	6.83598
Cr	45.5336	59.1936	6.83598
Cr	40.98	54.64	13.674
Cr	43.2564	56.9164	13.674
Cr	50.0864	56.9164	0
Cr	52.3636	59.1936	0
Cr	50.0864	54.64	6.83598
Cr	52.3636	59.1936	6.83598
Cr	47.81	54.64	13.674
Cr	50.0864	56.9164	13.674
Cr	56.9164	56.9164	0
Cr	59.1936	59.1936	0
Cr	56.9164	54.64	6.83598
Cr	59.1936	59.1936	6.83598
Cr	54.64	54.64	13.674
Cr	56.9164	56.9164	13.674
Cr	63.7464	56.9164	0
Cr	66.0236	59.1936	0
Cr	63.7464	54.64	6.83598
Cr	66.0236	59.1936	6.83598
Cr	61.47	54.64	13.674
Cr	63.7464	56.9164	13.674
Cr	2.27644	63.7464	0
Cr	4.55356	66.0236	0
Cr	2.27644	61.47	6.83598
Cr	4.55356	66.0236	6.83598
Cr	0	61.47	13.674
Cr	2.27644	63.7464	13.674
Cr	9.10644	63.7464	0
Cr	11.3836	66.0236	0
Cr	9.10644	61.47	6.83598
Cr	11.3836	66.0236	6.83598
Cr	6.83	61.47	13.674
Cr	9.10644	63.7464	13.674
Cr	15.9364	63.7464	0
Cr	18.2136	66.0236	0
Cr	15.9364	61.47	6.83598
Cr	18.2136	66.0236	6.83598
Cr	13.66	61.47	13.674
Cr	15.9364	63.7464	13.674
Cr	22.7664	63.7464	0
Cr	25.0436	66.0236	0
Cr	22.7664	61.47	6.83598
Cr	25.0436	66.0236	6.83598
Cr	20.49	61.47	13.674
Cr	22.7664	63.7464	13.674
Cr	29.5964	63.7464	0
Cr	31.8736	66.0236	0
Cr	29.5964	61.47	6.83598
Cr	31.8736	66.0236	6.83598
Cr	27.32	61.47	13.674
Cr	29.5964	63.7464	13.674
Cr	36.4264	63.7464	0
Cr	38.7036	66.0236	0
Cr	36.4264	61.47	6.83598
Cr	38.7036	66.0236	6.83598
Cr	34.15	61.47	13.674
Cr	36.4264	63.7464	13.674
Cr	43.2564	63.7464	0
Cr	45.5336	66.0236	0
Cr	43.2564	61.47	6.83598
Cr	45.5336	66.0236	6.83598
Cr	40.98	61.47	13.674
Cr	43.2564	63.7464	13.674
Cr	50.0864	63.7464	0
Cr	52.3636	66.0236	0
Cr	50.0864	61.47	6.83598
Cr	52.3636	66.0236	6.83598
Cr	47.81	61.47	13.674
Cr	50.0864	63.7464	13.674
Cr	56.9164	63.7464	0
Cr	59.1936	66.0236	0
Cr	56.9164	61.47	6.83598
Cr	59.1936	66.0236	6.83598
Cr	54.64	61.47	13.674
Cr	56.9164	63.7464	13.674
Cr	63.7464	63.7464	0
Cr	66.0236	66.0236	0
Cr	63.7464	61.47	6.83598
Cr	66.0236	66.0236	6.83598
Cr	61.47	61.47	13.674
Cr	63.7464	63.7464	13.674
